
     RDKit          3D

 13 13  0  0  0  0  0  0  0  0999 V2000
    0.1182   -1.1470   -0.4574 C   0  0  0  0  0  0  0  0  0  0  0  0
   -1.1325   -1.0434    0.1224 C   0  0  0  0  0  0  0  0  0  0  0  0
   -1.4977    0.1207    0.7672 C   0  0  0  0  0  0  0  0  0  0  0  0
   -0.5794    1.1503    0.8052 C   0  0  0  0  0  0  0  0  0  0  0  0
    0.6705    1.0316    0.2194 C   0  0  0  0  0  0  0  0  0  0  0  0
    1.0458   -0.1257   -0.4269 C   0  0  0  0  0  0  0  0  0  0  0  0
    2.3026   -0.2422   -1.0147 O   0  0  0  0  0  0  0  0  0  0  0  0
    0.3976   -2.0654   -0.9624 H   0  0  0  0  0  0  0  0  0  0  0  0
   -1.8580   -1.8392    0.0997 H   0  0  0  0  0  0  0  0  0  0  0  0
   -2.4797    0.2184    1.2293 H   0  0  0  0  0  0  0  0  0  0  0  0
   -0.8533    2.0722    1.3093 H   0  0  0  0  0  0  0  0  0  0  0  0
    1.3599    1.8611    0.2717 H   0  0  0  0  0  0  0  0  0  0  0  0
    2.5058    0.0087   -1.9628 H   0  0  0  0  0  0  0  0  0  0  0  0
  1  2  2  0
  2  3  1  0
  3  4  2  0
  4  5  1  0
  5  6  2  0
  6  7  1  0
  6  1  1  0
  1  8  1  0
  2  9  1  0
  3 10  1  0
  4 11  1  0
  5 12  1  0
  7 13  1  0
M  END
